&jules_initial
    dump_file = .true.
    file = '../data/mod_truth.dump.20080101.nc'
/
